Version 4
SHEET 1 1572 680
WIRE 112 16 -64 16
WIRE 192 16 112 16
WIRE 304 16 272 16
WIRE 464 16 304 16
WIRE 112 48 112 16
WIRE 304 96 304 16
WIRE 368 96 304 96
WIRE 464 112 464 16
WIRE 464 112 432 112
WIRE -64 128 -64 16
WIRE -32 128 -64 128
WIRE 368 128 352 128
WIRE 112 144 112 112
WIRE 112 144 32 144
WIRE 144 144 112 144
WIRE 240 144 208 144
WIRE 352 144 352 128
WIRE 352 144 320 144
WIRE -32 160 -80 160
WIRE 352 192 352 144
WIRE 208 208 208 144
WIRE -720 240 -720 176
WIRE 432 240 416 240
WIRE 544 240 512 240
WIRE 208 320 208 272
WIRE 352 320 352 288
WIRE -720 384 -720 320
WIRE -416 480 -416 464
FLAG 208 320 0
FLAG -160 160 Vin
FLAG 464 112 Vout
FLAG -720 176 Discharge
FLAG -720 384 0
FLAG -416 384 Vin
FLAG -416 480 0
FLAG 544 240 Discharge
FLAG 352 320 0
SYMBOL OpAmps\\UniversalOpAmp1 0 144 R0
SYMATTR InstName U1
SYMBOL diode 96 48 R0
SYMATTR InstName D1
SYMBOL diode 144 160 R270
WINDOW 0 32 32 VTop 2
WINDOW 3 0 32 VBottom 2
SYMATTR InstName D2
SYMBOL cap 192 208 R0
SYMATTR InstName C
SYMATTR Value 1µ
SYMBOL OpAmps\\UniversalOpAmp1 400 112 R0
SYMATTR InstName U2
SYMBOL res -64 144 R90
WINDOW 0 0 56 VBottom 2
WINDOW 3 32 56 VTop 2
SYMATTR InstName R1
SYMATTR Value 1k
SYMBOL res 288 0 R90
WINDOW 0 0 56 VBottom 2
WINDOW 3 32 56 VTop 2
SYMATTR InstName R2
SYMATTR Value 1k
SYMBOL voltage -720 224 R0
WINDOW 123 0 0 Left 0
WINDOW 39 0 0 Left 0
SYMATTR InstName V2
SYMATTR Value PULSE(0 3.3 0.1375 0 0 33.3u)
SYMBOL npn 416 192 M0
SYMATTR InstName Q1
SYMATTR Value 2N2222
SYMBOL voltage -416 368 R0
WINDOW 123 0 0 Left 0
WINDOW 39 0 0 Left 0
SYMATTR InstName V4
SYMATTR Value SINE(0 15m 20 0 0 0)
SYMBOL res 336 128 R90
WINDOW 0 0 56 VBottom 2
WINDOW 3 32 56 VTop 2
SYMATTR InstName Rdis
SYMATTR Value RX
SYMBOL res 528 224 R90
WINDOW 0 0 56 VBottom 2
WINDOW 3 32 56 VTop 2
SYMATTR InstName Rb
SYMATTR Value RY
TEXT -160 568 Left 2 !.tran 0 1 0 0.01
