Version 4
SHEET 1 5220 680
WIRE 1904 -192 1696 -192
WIRE 1952 -192 1904 -192
WIRE 2064 -192 2032 -192
WIRE 2224 -192 2064 -192
WIRE 3072 -192 3040 -192
WIRE 3232 -192 3168 -192
WIRE 528 -160 -16 -160
WIRE 720 -160 608 -160
WIRE 912 -160 720 -160
WIRE 1904 -160 1904 -192
WIRE 912 -144 912 -160
WIRE 960 -144 912 -144
WIRE 2064 -112 2064 -192
WIRE 2112 -112 2064 -112
WIRE 2224 -96 2224 -192
WIRE 2224 -96 2176 -96
WIRE 1696 -80 1696 -192
WIRE 1728 -80 1696 -80
WIRE 2080 -80 2032 -80
WIRE 2112 -80 2080 -80
WIRE 1904 -64 1904 -96
WIRE 1904 -64 1792 -64
WIRE 1968 -64 1904 -64
WIRE 2032 -64 2032 -80
WIRE 1600 -48 1536 -48
WIRE 1728 -48 1680 -48
WIRE 2080 -48 2080 -80
WIRE 2128 -48 2080 -48
WIRE 2224 -48 2224 -80
WIRE 2128 -16 2128 -48
WIRE 2896 -16 2832 -16
WIRE 3040 -16 3040 -192
WIRE 3040 -16 2976 -16
WIRE 3088 -16 3040 -16
WIRE 3232 0 3232 -192
WIRE 3232 0 3152 0
WIRE 3536 0 3472 0
WIRE 3664 0 3616 0
WIRE 3936 0 3888 0
WIRE 4064 0 4016 0
WIRE 3088 16 3040 16
WIRE 224 32 192 32
WIRE 432 32 224 32
WIRE 528 32 512 32
WIRE 640 32 528 32
WIRE 720 32 720 -160
WIRE 2832 32 2832 -16
WIRE -16 48 -16 -160
WIRE -16 48 -176 48
WIRE 80 48 -16 48
WIRE 192 48 192 32
WIRE 192 48 160 48
WIRE 3040 48 3040 16
WIRE -176 64 -176 48
WIRE 3232 96 3232 0
WIRE 3328 96 3232 96
WIRE 3472 96 3472 0
WIRE 3472 96 3408 96
WIRE 432 112 432 32
WIRE 528 112 528 32
WIRE 3472 144 3472 96
WIRE 3536 144 3472 144
WIRE 3888 144 3888 0
WIRE 3888 144 3840 144
WIRE 3936 144 3888 144
WIRE 224 160 224 32
WIRE 272 160 224 160
WIRE 3664 160 3664 0
WIRE 3664 160 3600 160
WIRE 4064 160 4064 0
WIRE 4064 160 4000 160
WIRE 432 176 336 176
WIRE 528 176 432 176
WIRE 720 176 720 32
WIRE 720 176 640 176
WIRE 3488 176 3408 176
WIRE 3536 176 3488 176
WIRE 3936 176 3872 176
WIRE 272 192 224 192
WIRE 3664 192 3664 160
WIRE 3872 192 3872 176
WIRE 3872 192 3664 192
WIRE 224 224 224 192
WIRE 3408 224 3408 176
WIRE 3072 256 3040 256
WIRE 3216 256 3168 256
WIRE 640 288 640 176
WIRE 704 288 640 288
WIRE 1040 304 1040 -144
WIRE 1040 304 768 304
WIRE 1104 304 1040 304
WIRE 704 320 640 320
WIRE 640 352 640 320
WIRE 2912 416 2848 416
WIRE 3040 416 3040 256
WIRE 3040 416 2992 416
WIRE 3088 416 3040 416
WIRE 3216 432 3216 256
WIRE 3216 432 3152 432
WIRE 3328 432 3328 224
WIRE 3328 432 3216 432
WIRE 2848 448 2848 416
WIRE 3088 448 3040 448
WIRE 3040 496 3040 448
FLAG 224 224 0
FLAG -176 144 0
FLAG 640 352 0
FLAG 2032 0 0
FLAG 1536 32 0
FLAG 2224 -48 0
FLAG 2128 64 0
FLAG 3040 496 0
FLAG 3120 320 0
FLAG 3040 48 0
FLAG 3120 -128 0
FLAG 2848 528 0
FLAG 2832 112 0
FLAG 3488 256 0
FLAG 3760 144 0
SYMBOL voltage -176 48 R0
WINDOW 123 24 236 Left 2
WINDOW 39 0 0 Left 0
WINDOW 3 73 73 Left 2
SYMATTR Value SINE(0 3 15k)
SYMATTR InstName V1
SYMBOL res 176 32 R90
WINDOW 0 0 56 VBottom 2
WINDOW 3 32 56 VTop 2
SYMATTR InstName R1
SYMATTR Value 6.8k
SYMBOL diode 512 112 R0
SYMATTR InstName D1
SYMBOL diode 448 176 R180
WINDOW 0 24 64 Left 2
WINDOW 3 24 0 Left 2
SYMATTR InstName D2
SYMBOL res 528 16 R90
WINDOW 0 0 56 VBottom 2
WINDOW 3 32 56 VTop 2
SYMATTR InstName R2
SYMATTR Value 6.8k
SYMBOL res 736 16 R90
WINDOW 0 0 56 VBottom 2
WINDOW 3 32 56 VTop 2
SYMATTR InstName R3
SYMATTR Value 3.4k
SYMBOL res 624 -176 R90
WINDOW 0 0 56 VBottom 2
WINDOW 3 32 56 VTop 2
SYMATTR InstName R4
SYMATTR Value 6.8k
SYMBOL res 1056 -160 R90
WINDOW 0 0 56 VBottom 2
WINDOW 3 32 56 VTop 2
SYMATTR InstName R5
SYMATTR Value 6.8k
SYMBOL OpAmps\\UniversalOpAmp 304 176 R0
SYMATTR InstName U1
SYMBOL OpAmps\\UniversalOpAmp 736 304 R0
SYMATTR InstName U2
SYMBOL OpAmps\\UniversalOpAmp1 1760 -64 R0
SYMATTR InstName U3
SYMBOL diode 1888 -160 R0
SYMATTR InstName D3
SYMBOL diode 1968 -48 R270
WINDOW 0 32 32 VTop 2
WINDOW 3 0 32 VBottom 2
SYMATTR InstName D4
SYMBOL cap 2016 -64 R0
SYMATTR InstName C1
SYMATTR Value 0.1µ
SYMBOL OpAmps\\UniversalOpAmp1 2144 -96 R0
SYMATTR InstName U4
SYMBOL res 1696 -64 R90
WINDOW 0 0 56 VBottom 2
WINDOW 3 32 56 VTop 2
SYMATTR InstName R6
SYMATTR Value 1k
SYMBOL voltage 1536 -64 R0
WINDOW 123 0 0 Left 0
WINDOW 39 0 0 Left 0
SYMATTR InstName V2
SYMATTR Value SINE(0 3 15k)
SYMBOL res 2048 -208 R90
WINDOW 0 0 56 VBottom 2
WINDOW 3 32 56 VTop 2
SYMATTR InstName R7
SYMATTR Value 1k
SYMBOL res 2112 -32 R0
SYMATTR InstName R8
SYMATTR Value 2k
SYMBOL npn 3072 -128 R270
SYMATTR InstName Q1
SYMBOL npn 3072 320 R270
SYMATTR InstName Q2
SYMBOL OpAmps\\UniversalOpAmp1 3120 0 R0
SYMATTR InstName U5
SYMBOL OpAmps\\UniversalOpAmp1 3120 432 R0
SYMATTR InstName U6
SYMBOL res 2992 -32 R90
WINDOW 0 0 56 VBottom 2
WINDOW 3 32 56 VTop 2
SYMATTR InstName R9
SYMATTR Value 1
SYMBOL res 3008 400 R90
WINDOW 0 0 56 VBottom 2
WINDOW 3 32 56 VTop 2
SYMATTR InstName R10
SYMATTR Value 1
SYMBOL voltage 2832 16 R0
WINDOW 123 0 0 Left 0
WINDOW 39 0 0 Left 0
SYMATTR InstName V3
SYMATTR Value 3
SYMBOL voltage 2848 432 R0
WINDOW 123 0 0 Left 0
WINDOW 39 0 0 Left 0
SYMATTR InstName V4
SYMATTR Value 1
SYMBOL OpAmps\\UniversalOpAmp1 3568 160 R0
SYMATTR InstName U7
SYMBOL OpAmps\\UniversalOpAmp1 3968 160 R0
SYMATTR InstName U8
SYMBOL res 3424 80 R90
WINDOW 0 0 56 VBottom 2
WINDOW 3 32 56 VTop 2
SYMATTR InstName R11
SYMATTR Value 1
SYMBOL res 3424 208 R90
WINDOW 0 0 56 VBottom 2
WINDOW 3 32 56 VTop 2
SYMATTR InstName R12
SYMATTR Value 1
SYMBOL res 3632 -16 R90
WINDOW 0 0 56 VBottom 2
WINDOW 3 32 56 VTop 2
SYMATTR InstName R13
SYMATTR Value 1
SYMBOL res 3856 128 R90
WINDOW 0 0 56 VBottom 2
WINDOW 3 32 56 VTop 2
SYMATTR InstName R14
SYMATTR Value 14m
SYMBOL res 3472 160 R0
SYMATTR InstName R16
SYMATTR Value 1
SYMBOL res 4032 -16 R90
WINDOW 0 0 56 VBottom 2
WINDOW 3 32 56 VTop 2
SYMATTR InstName R15
SYMATTR Value 1
SYMBOL OpAmps\\UniversalOpAmp2 4960 192 R0
SYMATTR InstName U9
SYMBOL npn 4976 416 R270
SYMATTR InstName Q3
SYMBOL res 5136 176 R0
SYMATTR InstName R17
SYMBOL res 5136 320 R0
SYMATTR InstName R18
TEXT -152 192 Left 2 !.tran .001
TEXT 1120 304 Left 2 ;Vout
TEXT 2224 -96 Left 2 ;Vout
