Version 4
SHEET 1 940 680
WIRE 304 96 144 96
WIRE 896 96 528 96
WIRE 144 112 144 96
WIRE 896 112 896 96
WIRE 896 112 880 112
WIRE 880 128 880 112
WIRE 304 176 256 176
WIRE 656 176 528 176
WIRE 768 176 656 176
WIRE 256 192 256 176
WIRE 880 224 880 208
WIRE 304 256 256 256
WIRE 656 256 528 256
WIRE 256 320 256 256
WIRE 464 352 464 336
WIRE 256 448 256 400
WIRE 400 448 384 448
WIRE 432 448 400 448
WIRE 432 464 432 448
WIRE 464 464 464 432
WIRE 464 464 432 464
WIRE 464 480 464 464
WIRE 464 576 464 560
FLAG 256 192 0
FLAG 464 336 Vdd
FLAG 464 576 Vss
FLAG 400 448 0
FLAG 768 176 Vdd
FLAG 656 336 0
FLAG 256 448 0
FLAG 880 224 0
FLAG 144 192 0
SYMBOL SpecialFunctions\\LTC6992-1 416 176 R0
SYMATTR InstName U2
SYMBOL voltage 464 464 R0
WINDOW 0 24 96 Left 2
WINDOW 3 24 16 Left 2
WINDOW 123 0 0 Left 0
WINDOW 39 0 0 Left 0
SYMATTR InstName Y1
SYMATTR Value 5
SYMBOL voltage 464 336 R0
WINDOW 0 24 96 Left 2
WINDOW 3 24 16 Left 2
WINDOW 123 0 0 Left 0
WINDOW 39 0 0 Left 0
SYMATTR InstName Y2
SYMATTR Value 3
SYMBOL res 640 240 R0
SYMATTR InstName Rdiv2
SYMATTR Value 102k
SYMBOL res 640 160 R0
SYMATTR InstName Rdiv1
SYMATTR Value 976k
SYMBOL res 240 304 R0
SYMATTR InstName Rset
SYMATTR Value 100k
SYMBOL res 864 112 R0
SYMATTR InstName R2
SYMATTR Value 1m
SYMBOL voltage 144 96 R0
WINDOW 3 24 44 Left 2
WINDOW 123 0 0 Left 0
WINDOW 39 0 0 Left 0
SYMATTR InstName V1
SYMATTR Value 0.2
TEXT -88 664 Left 2 !.tran 0 2m 0 0.01m
